Version 4
SHEET 1 956 680
WIRE -944 144 -1120 144
WIRE -1024 224 -1024 208
WIRE 240 224 64 224
WIRE -1120 240 -1120 144
WIRE -1056 240 -1120 240
WIRE -944 256 -944 144
WIRE -944 256 -992 256
WIRE -864 256 -944 256
WIRE -1248 272 -1296 272
WIRE -1120 272 -1168 272
WIRE -1056 272 -1088 272
WIRE -1024 304 -1024 288
WIRE -608 304 -608 288
WIRE -480 304 -480 288
WIRE 160 304 160 288
WIRE 64 320 64 224
WIRE 128 320 64 320
WIRE -1120 336 -1120 272
WIRE 240 336 240 224
WIRE 240 336 192 336
WIRE 320 336 240 336
WIRE 128 352 64 352
WIRE 64 384 64 352
WIRE 64 384 16 384
WIRE 160 384 160 368
WIRE -608 400 -608 384
WIRE -480 400 -480 384
WIRE -1120 464 -1120 416
FLAG -608 400 0
FLAG -608 288 3V3
FLAG -480 288 orp+
FLAG -1024 304 0
FLAG -1024 208 3V3
FLAG -1120 464 0
FLAG -864 256 orp-
FLAG -480 400 orp-
FLAG -1296 272 3V3
FLAG 16 384 orp+
FLAG 160 384 0
FLAG 160 288 3V3
FLAG 320 336 Vout
FLAG -1088 272 0
SYMBOL voltage -608 288 R0
WINDOW 123 0 0 Left 0
WINDOW 39 0 0 Left 0
SYMATTR InstName Vdd
SYMATTR Value 3.3
SYMBOL voltage -480 288 R0
WINDOW 123 0 0 Left 0
WINDOW 39 0 0 Left 0
SYMATTR InstName Vorp
SYMATTR Value PULSE(0 1.5 0 2)
SYMBOL Opamps\\opamp2 -1024 192 R0
SYMATTR InstName U1
SYMATTR Value LM358
SYMBOL res -1152 256 R90
WINDOW 0 0 56 VBottom 2
WINDOW 3 32 56 VTop 2
SYMATTR InstName R5
SYMATTR Value 8k
SYMBOL res -1136 320 R0
SYMATTR InstName R6
SYMATTR Value 10K
SYMBOL Opamps\\opamp2 160 272 R0
SYMATTR InstName U2
SYMATTR Value LM358
TEXT -624 104 Left 2 !.tran 2
TEXT -624 136 Left 2 !.inc lm358.lib
