Version 4
SHEET 1 956 680
WIRE -1440 -112 -1616 -112
WIRE -576 -80 -640 -80
WIRE -432 -80 -496 -80
WIRE -384 -80 -432 -80
WIRE -256 -80 -304 -80
WIRE -640 -48 -640 -80
WIRE -1520 -32 -1520 -48
WIRE -1616 -16 -1616 -112
WIRE -1552 -16 -1616 -16
WIRE -1440 0 -1440 -112
WIRE -1440 0 -1488 0
WIRE -1360 0 -1440 0
WIRE -1744 16 -1792 16
WIRE -1616 16 -1664 16
WIRE -1552 16 -1616 16
WIRE -1520 48 -1520 32
WIRE -1104 48 -1104 32
WIRE -960 48 -960 32
WIRE -336 48 -336 32
WIRE -432 64 -432 -80
WIRE -432 64 -480 64
WIRE -368 64 -432 64
WIRE -1616 80 -1616 16
WIRE -256 80 -256 -80
WIRE -256 80 -304 80
WIRE -176 80 -256 80
WIRE -368 96 -432 96
WIRE -432 128 -432 96
WIRE -432 128 -480 128
WIRE -336 128 -336 112
WIRE -1104 144 -1104 128
WIRE -960 144 -960 128
WIRE -1616 208 -1616 160
FLAG -960 32 ph+
FLAG -960 144 ph-
FLAG -1104 144 0
FLAG -1104 32 3V3
FLAG -1520 48 0
FLAG -1520 -48 3V3
FLAG -1616 208 0
FLAG -1360 0 ph-
FLAG -1792 16 3V3
FLAG -480 128 ph+
FLAG -336 128 0
FLAG -336 32 3V3
FLAG -176 80 Vout
FLAG -640 -48 0
FLAG -480 64 Vin-
SYMBOL voltage -960 32 R0
WINDOW 123 0 0 Left 0
WINDOW 39 0 0 Left 0
SYMATTR InstName Vph
SYMATTR Value PULSE(-0.43 0.43 0 2)
SYMBOL voltage -1104 32 R0
WINDOW 123 0 0 Left 0
WINDOW 39 0 0 Left 0
SYMATTR InstName Vdd
SYMATTR Value 3.3
SYMBOL Opamps\\opamp2 -1520 -64 R0
SYMATTR InstName U3
SYMATTR Value TLC272
SYMBOL res -1648 0 R90
WINDOW 0 0 56 VBottom 2
WINDOW 3 32 56 VTop 2
SYMATTR InstName R3
SYMATTR Value 50k
SYMBOL res -1632 64 R0
SYMATTR InstName R4
SYMATTR Value 10K
SYMBOL Opamps\\opamp2 -336 16 R0
SYMATTR InstName U4
SYMATTR Value TLC272
SYMBOL res -480 -96 R90
WINDOW 0 0 56 VBottom 2
WINDOW 3 32 56 VTop 2
SYMATTR InstName R7
SYMATTR Value 10k
SYMBOL res -288 -96 R90
WINDOW 0 0 56 VBottom 2
WINDOW 3 32 56 VTop 2
SYMATTR InstName R8
SYMATTR Value 10k
TEXT -1120 -152 Left 2 !.tran 2
TEXT -1120 -120 Left 2 !.inc TLC272.lib
