Version 4
SHEET 1 3272 680
WIRE 1136 -48 1136 -80
WIRE 1136 64 1136 32
WIRE 1280 64 1136 64
WIRE 1344 64 1280 64
WIRE 1472 64 1424 64
WIRE 1136 96 1136 64
WIRE 1008 128 1008 96
WIRE 1744 128 1744 112
WIRE 1136 192 1136 176
WIRE 1376 208 1376 192
WIRE 1280 224 1280 64
WIRE 1344 224 1280 224
WIRE 1744 224 1744 208
WIRE 1472 240 1472 64
WIRE 1472 240 1408 240
WIRE 1536 240 1472 240
WIRE 1008 256 1008 208
WIRE 1344 256 1008 256
WIRE 1008 288 1008 256
WIRE 1376 288 1376 272
WIRE 1008 400 1008 368
FLAG 1744 224 0
FLAG 1744 112 3V3
FLAG 1376 192 3V3
FLAG 1536 240 Vout
FLAG 1376 288 0
FLAG 1136 -80 3V3
FLAG 1136 192 0
FLAG 1008 400 0
FLAG 1008 96 3V3
SYMBOL voltage 1744 112 R0
WINDOW 123 0 0 Left 0
WINDOW 39 0 0 Left 0
SYMATTR InstName Vdd
SYMATTR Value 3.3
SYMBOL Opamps\\opamp2 1376 176 R0
SYMATTR InstName U1
SYMATTR Value TLC272
SYMBOL res 992 272 R0
SYMATTR InstName R1
SYMATTR Value 4k7
SYMBOL res 1120 80 R0
SYMATTR InstName R2
SYMATTR Value 150k
SYMBOL res 1120 -64 R0
SYMATTR InstName R3
SYMATTR Value 180k
SYMBOL res 1440 48 R90
WINDOW 0 0 56 VBottom 2
WINDOW 3 32 56 VTop 2
SYMATTR InstName R4
SYMATTR Value 27k
SYMBOL res 992 112 R0
SYMATTR InstName NTC
SYMATTR Value {R}
TEXT 1872 200 Left 2 !.step param R 4k 33k .5k
TEXT 1872 168 Left 2 !.op
TEXT -416 -336 Left 2 ;50k=40°C
TEXT 288 -320 Left 2 ;70k=33°C
TEXT 896 -328 Left 2 ;90k=27°C
TEXT 1400 -320 Left 2 ;110k=23°C
TEXT 1792 -328 Left 2 ;130k=19°C
TEXT 2128 -328 Left 2 ;150k=16°C
TEXT 2432 -328 Left 2 ;170k=13°C
TEXT 2704 -320 Left 2 ;190k=11°C
TEXT 2944 -320 Left 2 ;210k=9°C
TEXT 3152 -328 Left 2 ;230k=7°C
TEXT 1872 136 Left 2 !.inc lm358.lib
TEXT 1872 96 Left 2 !.inc TLC272.lib
